0 PUSH_GLOBAL_I v1
1 PUSH_GLOBAL_I v2
2 PUSH_GLOBAL_I vc1
3 PUSH_GLOBAL_C vc3
4 LOAD_CONST  10
5 LOAD_CONST  v1
6 LOAD_FAST 0
7 STORE_FAST g
8 STORE_FAST v2
9 BINARY_ADD
10 BINARY_OR
11 LOAD_FAST 10*2
12 RETURN_VALUE
13 STORE_FAST 3
14 STORE_FAST 5
15 BINARY_ADD
16 STORE_FAST 0
17 STORE_FAST 0
18 BINARY_ADD
19 BINARY_OR
20 LOAD_CONST  10*10
21 LOAD_CONST  4*5
22 RETURN
23 END  
